Circuit: * F:\A_Univercity\Term_9\ELE_3\Project\Phase_2\V2\Project.asc

Model "nmos12": Oxide thickness thinner than recommended for a level 1 MOSFET.
Instance "m2": Length shorter than recommended for a level 1 MOSFET.
Instance "m1": Length shorter than recommended for a level 1 MOSFET.
Per .tran options, skipping operating point for transient analysis.
Changing Tseed to 9.76562e-010

Date: Thu Feb 02 18:37:36 2023
Total elapsed time: 0.101 seconds.

tnom = 27
temp = 27
method = modified trap
totiter = 3114
traniter = 3114
tranpoints = 1250
accept = 1158
rejected = 91
matrix size = 22
fillins = 40
solver = Normal
Matrix Compiler1: 6.21 KB object code size  0.6/0.4/[0.2]
Matrix Compiler2: 3.26 KB object code size  0.2/0.2/[0.1]

