Circuit: * F:\A_Univercity\Term_9\ELE_3\Project\Phase_2\V2\Project.asc

Model "nmos2122": Oxide thickness thinner than recommended for a level 1 MOSFET.
Instance "m22": Length shorter than recommended for a level 1 MOSFET.
Instance "m22": Width narrower than recommended for a level 1 MOSFET.
Instance "m21": Length shorter than recommended for a level 1 MOSFET.
Instance "m21": Width narrower than recommended for a level 1 MOSFET.
Model "pmos1718": Oxide thickness thinner than recommended for a level 1 MOSFET.
Instance "m18": Length shorter than recommended for a level 1 MOSFET.
Instance "m18": Width narrower than recommended for a level 1 MOSFET.
Instance "m17": Length shorter than recommended for a level 1 MOSFET.
Instance "m17": Width narrower than recommended for a level 1 MOSFET.
Model "nmos1516": Oxide thickness thinner than recommended for a level 1 MOSFET.
Instance "m16": Length shorter than recommended for a level 1 MOSFET.
Instance "m15": Length shorter than recommended for a level 1 MOSFET.
Model "nmos1112": Oxide thickness thinner than recommended for a level 1 MOSFET.
Instance "m12": Length shorter than recommended for a level 1 MOSFET.
Instance "m12": Width narrower than recommended for a level 1 MOSFET.
Instance "m11": Length shorter than recommended for a level 1 MOSFET.
Instance "m11": Width narrower than recommended for a level 1 MOSFET.
Model "nmos910": Oxide thickness thinner than recommended for a level 1 MOSFET.
Instance "m10": Length shorter than recommended for a level 1 MOSFET.
Instance "m9": Length shorter than recommended for a level 1 MOSFET.
Model "pmos78": Oxide thickness thinner than recommended for a level 1 MOSFET.
Instance "m8": Length shorter than recommended for a level 1 MOSFET.
Instance "m8": Width narrower than recommended for a level 1 MOSFET.
Instance "m7": Length shorter than recommended for a level 1 MOSFET.
Instance "m7": Width narrower than recommended for a level 1 MOSFET.
Model "pmos56": Oxide thickness thinner than recommended for a level 1 MOSFET.
Instance "m6": Length shorter than recommended for a level 1 MOSFET.
Instance "m5": Length shorter than recommended for a level 1 MOSFET.
Model "pmos34": Oxide thickness thinner than recommended for a level 1 MOSFET.
Instance "m4": Length shorter than recommended for a level 1 MOSFET.
Instance "m4": Width narrower than recommended for a level 1 MOSFET.
Instance "m3": Length shorter than recommended for a level 1 MOSFET.
Instance "m3": Width narrower than recommended for a level 1 MOSFET.
Model "nmos12": Oxide thickness thinner than recommended for a level 1 MOSFET.
Instance "m2": Length shorter than recommended for a level 1 MOSFET.
Instance "m1": Length shorter than recommended for a level 1 MOSFET.
Direct Newton iteration failed to find .op point.  (Use ".option noopiter" to skip.)
Starting Gmin stepping
Gmin = 10
Gmin = 1.07374
Gmin = 0.115292
Gmin = 0.0123794
Gmin = 0.00132923
Gmin = 0.000142725
Gmin = 1.5325e-005
Gmin = 1.6455e-006
Gmin = 1.76685e-007
Gmin = 1.89714e-008
Gmin = 2.03704e-009
Gmin = 2.18725e-010
Gmin = 2.34854e-011
Gmin = 2.52173e-012
Gmin = 2.70769e-013
Gmin = 0
Gmin stepping succeeded in finding the operating point.


Date: Thu Feb 02 20:16:11 2023
Total elapsed time: 0.096 seconds.

tnom = 27
temp = 27
method = trap
totiter = 447
traniter = 0
tranpoints = 0
accept = 0
rejected = 0
matrix size = 22
fillins = 38
solver = Normal
Matrix Compiler1:     332 opcodes
Matrix Compiler2:     235 opcodes  0.2/[0.2]/0.3

